Version 4
SHEET 1 1268 680
WIRE 192 272 80 272
WIRE 368 272 256 272
WIRE 432 272 368 272
WIRE 464 272 432 272
WIRE 608 272 544 272
WIRE 656 272 608 272
WIRE 784 272 736 272
WIRE 848 272 784 272
WIRE 992 272 928 272
WIRE 1072 272 992 272
WIRE 1264 272 1152 272
WIRE 368 320 368 272
WIRE 432 320 432 272
WIRE 608 320 608 272
WIRE 784 320 784 272
WIRE 992 320 992 272
WIRE 80 336 80 272
FLAG 368 400 0
FLAG 80 416 0
FLAG 432 384 0
FLAG 608 384 0
FLAG 784 384 0
FLAG 992 384 0
SYMBOL Res 384 416 R180
WINDOW 0 36 76 Left 2
WINDOW 3 36 40 Left 2
SYMATTR InstName R1
SYMATTR Value 1kR
SYMBOL Cap 256 256 R90
WINDOW 0 0 32 VBottom 2
WINDOW 3 32 32 VTop 2
SYMATTR InstName C1
SYMATTR Value 500pF
SYMBOL voltage 80 320 R0
SYMATTR InstName V1
SYMATTR Value SINE(0 1 1k)
SYMATTR Value2 AC 1 0
SYMBOL Res 560 256 R90
WINDOW 0 0 56 VBottom 2
WINDOW 3 32 56 VTop 2
SYMATTR InstName R2
SYMATTR Value 1kR
SYMBOL Res 752 256 R90
WINDOW 0 0 56 VBottom 2
WINDOW 3 32 56 VTop 2
SYMATTR InstName R3
SYMATTR Value 1k
SYMBOL Res 944 256 R90
WINDOW 0 0 56 VBottom 2
WINDOW 3 32 56 VTop 2
SYMATTR InstName R4
SYMATTR Value 1k
SYMBOL Res 1168 256 R90
WINDOW 0 0 56 VBottom 2
WINDOW 3 32 56 VTop 2
SYMATTR InstName R5
SYMATTR Value 1k
SYMBOL Cap 416 320 R0
SYMATTR InstName C2
SYMATTR Value 500p
SYMBOL Cap 592 320 R0
SYMATTR InstName C3
SYMATTR Value 500p
SYMBOL Cap 768 320 R0
SYMATTR InstName C4
SYMATTR Value 500p
SYMBOL Cap 976 320 R0
SYMATTR InstName C5
SYMATTR Value 500p
TEXT 584 88 Left 2 !.ac dec 100 1 10Meg
